<?xml version="1.0" encoding="UTF-8"?>

<!-- generated on 2024-06-14 16:09:25.893092 by osmWebWizard.py v1_20_0+0002-343658e7c64
<configuration>
    <net-file value="C:\Users\dr_sh\Sumo\2024-06-14-16-09-15\osm.net.xml.gz"/>
    <output-trip-file value="C:\Users\dr_sh\Sumo\2024-06-14-16-09-15\osm.passenger.trips.xml"/>
    <route-file value="C:\Users\dr_sh\Sumo\2024-06-14-16-09-15\osm.passenger.rou.xml"/>
    <prefix value="veh"/>
    <trip-attributes value="departLane=&quot;best&quot;"/>
    <fringe-start-attributes value="departSpeed=&quot;max&quot;"/>
    <vehicle-class value="passenger"/>
    <lanes value="True"/>
    <fringe-factor value="5"/>
    <allow-fringe.min-length value="1000.0"/>
    <via-edge-types value="highway.motorway,highway.motorway_link,highway.trunk_link,highway.primary_link,highway.secondary_link,highway.tertiary_link"/>
    <min-distance value="300.0"/>
    <min-distance.fringe value="10.0"/>
    <remove-loops value="True"/>
    <validate value="True"/>
    <insertion-density value="12.0"/>
</configuration>
-->

<!-- generated on 2024-06-14 16:09:25 by Eclipse SUMO duarouter Version 1.20.0
<configuration xmlns:xsi="http://www.w3.org/2001/XMLSchema-instance" xsi:noNamespaceSchemaLocation="http://sumo.dlr.de/xsd/duarouterConfiguration.xsd">

    <input>
        <net-file value="C:\Users\dr_sh\Sumo\2024-06-14-16-09-15\osm.net.xml.gz"/>
        <route-files value="C:\Users\dr_sh\Sumo\2024-06-14-16-09-15\osm.passenger.trips.xml"/>
    </input>

    <output>
        <output-file value="C:\Users\dr_sh\Sumo\2024-06-14-16-09-15\osm.passenger.trips.xml.tmp"/>
        <alternatives-output value="NUL"/>
        <write-trips value="true"/>
    </output>

    <processing>
        <remove-loops value="true"/>
    </processing>

    <time>
        <begin value="0.0"/>
        <end value="3600.0"/>
    </time>

    <report>
        <no-warnings value="true"/>
        <ignore-errors value="true"/>
        <no-step-log value="true"/>
    </report>

</configuration>
-->

<routes xmlns:xsi="http://www.w3.org/2001/XMLSchema-instance" xsi:noNamespaceSchemaLocation="http://sumo.dlr.de/xsd/routes_file.xsd">
    <vType id="veh_passenger" vClass="passenger"/>
    <trip id="veh0" type="veh_passenger" depart="0.00" departLane="best" from="325716095#21" to="-109853087#0"/>
    <trip id="veh1" type="veh_passenger" depart="0.93" departLane="best" departSpeed="max" from="-35854436#5" to="-35854353#0"/>
    <trip id="veh2" type="veh_passenger" depart="1.87" departLane="best" from="-35854326#6" to="35851193#0"/>
    <trip id="veh3" type="veh_passenger" depart="2.80" departLane="best" departSpeed="max" from="35855179#0" to="-158413681#2"/>
    <trip id="veh4" type="veh_passenger" depart="3.73" departLane="best" from="600832256" to="-111473209#0"/>
    <trip id="veh5" type="veh_passenger" depart="4.66" departLane="best" from="35854332#1" to="133301526#2"/>
    <trip id="veh6" type="veh_passenger" depart="5.60" departLane="best" departSpeed="max" from="-111628362#1" to="-35854330#2"/>
    <trip id="veh7" type="veh_passenger" depart="6.53" departLane="best" departSpeed="max" from="329418209" to="189218308"/>
    <trip id="veh8" type="veh_passenger" depart="7.46" departLane="best" from="35854332#5" to="325716095#0"/>
    <trip id="veh9" type="veh_passenger" depart="8.40" departLane="best" from="35854599#1" to="-106949933"/>
    <trip id="veh10" type="veh_passenger" depart="9.33" departLane="best" from="35854580#4" to="-35854328#6"/>
    <trip id="veh11" type="veh_passenger" depart="10.26" departLane="best" from="35854806#7" to="-35850879#2"/>
    <trip id="veh12" type="veh_passenger" depart="11.19" departLane="best" from="614360857#0" to="-35855144#1"/>
    <trip id="veh13" type="veh_passenger" depart="12.13" departLane="best" departSpeed="max" from="166801712" to="-158740812#1"/>
    <trip id="veh14" type="veh_passenger" depart="13.06" departLane="best" from="-35854785#5" to="325716096#1"/>
    <trip id="veh15" type="veh_passenger" depart="13.99" departLane="best" from="35854580#6" to="-35854367#6"/>
    <trip id="veh16" type="veh_passenger" depart="14.92" departLane="best" from="119422782#1" to="779706544#0"/>
    <trip id="veh17" type="veh_passenger" depart="15.86" departLane="best" from="-35855179#3" to="212452939#0"/>
    <trip id="veh18" type="veh_passenger" depart="16.79" departLane="best" from="35854647#1" to="336354636#2"/>
    <trip id="veh19" type="veh_passenger" depart="17.72" departLane="best" from="35854806#6" to="-302155077#0"/>
    <trip id="veh20" type="veh_passenger" depart="18.66" departLane="best" from="35851145#1" to="111628362#0"/>
    <trip id="veh21" type="veh_passenger" depart="19.59" departLane="best" from="-35854341#0" to="35854766#2"/>
    <trip id="veh22" type="veh_passenger" depart="20.52" departLane="best" from="-158415453#7" to="-35854834#3"/>
    <trip id="veh23" type="veh_passenger" depart="21.45" departLane="best" departSpeed="max" from="-169102467#6" to="-35854668#1"/>
    <trip id="veh24" type="veh_passenger" depart="22.39" departLane="best" from="325716095#19" to="-389443559#2"/>
    <trip id="veh25" type="veh_passenger" depart="23.32" departLane="best" departSpeed="max" from="-35855153#1" to="-35854339#1"/>
    <trip id="veh26" type="veh_passenger" depart="24.25" departLane="best" departSpeed="max" from="-35854429" to="602314999"/>
    <trip id="veh27" type="veh_passenger" depart="25.19" departLane="best" from="325720698#0" to="329418228#0"/>
    <trip id="veh28" type="veh_passenger" depart="26.12" departLane="best" from="-35850852#1" to="35854367#5"/>
    <trip id="veh29" type="veh_passenger" depart="27.05" departLane="best" from="-35850815#0" to="-435917345#1"/>
    <trip id="veh30" type="veh_passenger" depart="27.98" departLane="best" from="289591535#1" to="-35850810#3"/>
    <trip id="veh31" type="veh_passenger" depart="28.92" departLane="best" departSpeed="max" from="131010277#0" to="-35854201#5"/>
    <trip id="veh32" type="veh_passenger" depart="29.85" departLane="best" from="35854776" to="35854608"/>
    <trip id="veh33" type="veh_passenger" depart="30.78" departLane="best" from="35854344#1" to="-111473217"/>
    <trip id="veh34" type="veh_passenger" depart="31.72" departLane="best" from="35854774#2" to="-35854615#3"/>
    <trip id="veh35" type="veh_passenger" depart="32.65" departLane="best" from="-35854326#0" to="602315411"/>
    <trip id="veh36" type="veh_passenger" depart="33.58" departLane="best" from="-35855108#0" to="35854813#3"/>
    <trip id="veh37" type="veh_passenger" depart="34.51" departLane="best" departSpeed="max" from="329418209" to="-627711749#0"/>
    <trip id="veh38" type="veh_passenger" depart="35.45" departLane="best" from="-379692540" to="-111637556#1"/>
    <trip id="veh39" type="veh_passenger" depart="36.38" departLane="best" departSpeed="max" from="-35854419#1" to="-35854417#7"/>
    <trip id="veh41" type="veh_passenger" depart="38.24" departLane="best" from="166801723#0" to="-390310562#1"/>
    <trip id="veh42" type="veh_passenger" depart="39.18" departLane="best" from="389443559#0" to="-35854351#0"/>
    <trip id="veh43" type="veh_passenger" depart="40.11" departLane="best" from="985122986" to="158415453#4"/>
    <trip id="veh44" type="veh_passenger" depart="41.04" departLane="best" departSpeed="max" from="166801712" to="-111633759#1"/>
    <trip id="veh46" type="veh_passenger" depart="42.91" departLane="best" from="35854431#3" to="109853085#1"/>
    <trip id="veh47" type="veh_passenger" depart="43.84" departLane="best" from="-121466696#3" to="589097219"/>
    <trip id="veh48" type="veh_passenger" depart="44.77" departLane="best" from="-985122985#1" to="389443557#6"/>
    <trip id="veh49" type="veh_passenger" depart="45.71" departLane="best" from="-712631154#0" to="35855168#1"/>
    <trip id="veh50" type="veh_passenger" depart="46.64" departLane="best" from="-109853085#0" to="35854351#8"/>
    <trip id="veh51" type="veh_passenger" depart="47.57" departLane="best" from="-35850770#1" to="169102467#1"/>
    <trip id="veh52" type="veh_passenger" depart="48.51" departLane="best" from="-35854422#4" to="35850810#5"/>
    <trip id="veh54" type="veh_passenger" depart="50.37" departLane="best" departSpeed="max" from="-779706544#1" to="614362544#0"/>
    <trip id="veh55" type="veh_passenger" depart="51.30" departLane="best" from="-35855103" to="-35854606#1"/>
    <trip id="veh56" type="veh_passenger" depart="52.24" departLane="best" departSpeed="max" from="111473222#0" to="-35854129#3"/>
    <trip id="veh57" type="veh_passenger" depart="53.17" departLane="best" from="374849533#2-AddedOnRampEdge" to="35855186#1"/>
    <trip id="veh58" type="veh_passenger" depart="54.10" departLane="best" from="-35854637#3" to="-35850810#1"/>
    <trip id="veh59" type="veh_passenger" depart="55.04" departLane="best" from="289591535#0" to="-35850826#9"/>
    <trip id="veh60" type="veh_passenger" depart="55.97" departLane="best" from="35854351#2" to="184024313#5"/>
    <trip id="veh61" type="veh_passenger" depart="56.90" departLane="best" from="35854374" to="166801724#0"/>
    <trip id="veh63" type="veh_passenger" depart="58.77" departLane="best" from="-111626977#0" to="599960464"/>
    <trip id="veh64" type="veh_passenger" depart="59.70" departLane="best" from="35855115#1" to="35854818#1"/>
    <trip id="veh65" type="veh_passenger" depart="60.63" departLane="best" departSpeed="max" from="-35854757" to="-111636975#0"/>
    <trip id="veh66" type="veh_passenger" depart="61.56" departLane="best" from="-35855110#1" to="614360857#0"/>
    <trip id="veh67" type="veh_passenger" depart="62.50" departLane="best" from="-158744282" to="126923438#3"/>
    <trip id="veh68" type="veh_passenger" depart="63.43" departLane="best" departSpeed="max" from="-122792658" to="-35854442#2"/>
    <trip id="veh69" type="veh_passenger" depart="64.36" departLane="best" departSpeed="max" from="35854353#0" to="-302155076"/>
    <trip id="veh70" type="veh_passenger" depart="65.30" departLane="best" departSpeed="max" from="106949933" to="212452939#0"/>
    <trip id="veh71" type="veh_passenger" depart="66.23" departLane="best" from="-35854420#1" to="35855189#0"/>
    <trip id="veh72" type="veh_passenger" depart="67.16" departLane="best" from="-600832257#1" to="-35854344#0"/>
    <trip id="veh73" type="veh_passenger" depart="68.09" departLane="best" from="-119777501#10" to="-35854367#6"/>
    <trip id="veh74" type="veh_passenger" depart="69.03" departLane="best" from="-35854118#1" to="35854806#4"/>
    <trip id="veh75" type="veh_passenger" depart="69.96" departLane="best" from="985106345" to="-35850852#1"/>
    <trip id="veh76" type="veh_passenger" depart="70.89" departLane="best" departSpeed="max" from="-627711749#2" to="158903456#0"/>
    <trip id="veh77" type="veh_passenger" depart="71.83" departLane="best" departSpeed="max" from="-248478066" to="-35854353#0"/>
    <trip id="veh78" type="veh_passenger" depart="72.76" departLane="best" from="-35854806#13" to="325716095#0"/>
    <trip id="veh79" type="veh_passenger" depart="73.69" departLane="best" from="35854344#3" to="-35854351#0"/>
    <trip id="veh80" type="veh_passenger" depart="74.62" departLane="best" departSpeed="max" from="-122816064#1" to="-35850770#1"/>
    <trip id="veh81" type="veh_passenger" depart="75.56" departLane="best" from="-35854342#2" to="-390312200"/>
    <trip id="veh82" type="veh_passenger" depart="76.49" departLane="best" from="35854806#13" to="-119758203#0"/>
    <trip id="veh83" type="veh_passenger" depart="77.42" departLane="best" from="-35854353#1" to="35851174#16"/>
    <trip id="veh84" type="veh_passenger" depart="78.36" departLane="best" from="35854328#3" to="-314069086#0"/>
    <trip id="veh85" type="veh_passenger" depart="79.29" departLane="best" departSpeed="max" from="390312199" to="301628802"/>
    <trip id="veh86" type="veh_passenger" depart="80.22" departLane="best" departSpeed="max" from="106949931#0" to="-111634754#0"/>
    <trip id="veh87" type="veh_passenger" depart="81.15" departLane="best" from="35854580#6" to="-35854319"/>
    <trip id="veh88" type="veh_passenger" depart="82.09" departLane="best" from="166801724#1" to="-111626977#2"/>
    <trip id="veh89" type="veh_passenger" depart="83.02" departLane="best" from="-600844284" to="-119758203#1"/>
    <trip id="veh90" type="veh_passenger" depart="83.95" departLane="best" from="35854314" to="35851174#6"/>
    <trip id="veh91" type="veh_passenger" depart="84.88" departLane="best" from="133301526#2" to="158744282"/>
    <trip id="veh92" type="veh_passenger" depart="85.82" departLane="best" from="-390310562#2" to="35855160"/>
    <trip id="veh93" type="veh_passenger" depart="86.75" departLane="best" from="-35854806#6" to="-35854422#2"/>
    <trip id="veh94" type="veh_passenger" depart="87.68" departLane="best" departSpeed="max" from="-35851174#16" to="111636969#0"/>
    <trip id="veh95" type="veh_passenger" depart="88.62" departLane="best" from="600832256" to="-35854668#1"/>
    <trip id="veh96" type="veh_passenger" depart="89.55" departLane="best" from="-35854374" to="591182569#1"/>
    <trip id="veh97" type="veh_passenger" depart="90.48" departLane="best" departSpeed="max" from="-712631155#2" to="35855168#1"/>
    <trip id="veh98" type="veh_passenger" depart="91.41" departLane="best" from="126923438#3" to="-111634755#1"/>
    <trip id="veh99" type="veh_passenger" depart="92.35" departLane="best" from="985122988" to="35854834#0"/>
    <trip id="veh100" type="veh_passenger" depart="93.28" departLane="best" departSpeed="max" from="627711749#0" to="599960463#0"/>
    <trip id="veh101" type="veh_passenger" depart="94.21" departLane="best" from="35854789#0" to="35851174#4"/>
    <trip id="veh102" type="veh_passenger" depart="95.15" departLane="best" departSpeed="max" from="107039949" to="-35854344#0"/>
    <trip id="veh103" type="veh_passenger" depart="96.08" departLane="best" from="-390310558#1" to="-111636975#0"/>
    <trip id="veh104" type="veh_passenger" depart="97.01" departLane="best" from="35855179#4" to="874225397#0"/>
    <trip id="veh105" type="veh_passenger" depart="97.94" departLane="best" from="-35854420#1" to="-35854629#3"/>
    <trip id="veh106" type="veh_passenger" depart="98.88" departLane="best" from="779706545#0" to="109853085#1"/>
    <trip id="veh107" type="veh_passenger" depart="99.81" departLane="best" from="614360857#0" to="985106345"/>
    <trip id="veh108" type="veh_passenger" depart="100.74" departLane="best" departSpeed="max" from="131010277#0" to="35854351#8"/>
    <trip id="veh109" type="veh_passenger" depart="101.68" departLane="best" from="-35850779#3" to="-35854785#3"/>
    <trip id="veh110" type="veh_passenger" depart="102.61" departLane="best" departSpeed="max" from="627711749#0" to="305010137#0"/>
    <trip id="veh111" type="veh_passenger" depart="103.54" departLane="best" from="120044963" to="35854419#1"/>
    <trip id="veh112" type="veh_passenger" depart="104.47" departLane="best" from="-119777501#1" to="-390311740#2"/>
    <trip id="veh113" type="veh_passenger" depart="105.41" departLane="best" departSpeed="max" from="111473222#0" to="-35855144#2"/>
    <trip id="veh114" type="veh_passenger" depart="106.34" departLane="best" departSpeed="max" from="-35850791#4" to="712631154#0"/>
    <trip id="veh115" type="veh_passenger" depart="107.27" departLane="best" from="-158415453#8" to="-35854310#1"/>
    <trip id="veh116" type="veh_passenger" depart="108.20" departLane="best" from="-190470150#0" to="35851180#1"/>
    <trip id="veh117" type="veh_passenger" depart="109.14" departLane="best" departSpeed="max" from="-35854351#8" to="-301628800#4"/>
    <trip id="veh118" type="veh_passenger" depart="110.07" departLane="best" from="35855162#0" to="-35854417#7"/>
    <trip id="veh119" type="veh_passenger" depart="111.00" departLane="best" from="-184024313#4" to="133301527#1"/>
    <trip id="veh120" type="veh_passenger" depart="111.94" departLane="best" from="-589097219" to="-390311740#2"/>
    <trip id="veh121" type="veh_passenger" depart="112.87" departLane="best" from="-111636972#4" to="-600832257#1"/>
    <trip id="veh122" type="veh_passenger" depart="113.80" departLane="best" departSpeed="max" from="-35854227#1" to="35854346#0"/>
    <trip id="veh123" type="veh_passenger" depart="114.73" departLane="best" departSpeed="max" from="-35854353#2" to="-627711749#0"/>
    <trip id="veh124" type="veh_passenger" depart="115.67" departLane="best" from="-35843584" to="-35854790#1"/>
    <trip id="veh125" type="veh_passenger" depart="116.60" departLane="best" from="-35854778" to="35854431#6"/>
    <trip id="veh126" type="veh_passenger" depart="117.53" departLane="best" departSpeed="max" from="-122816064#1" to="-111636976#4"/>
    <trip id="veh127" type="veh_passenger" depart="118.47" departLane="best" from="985122987#0" to="-985122985#1"/>
    <trip id="veh128" type="veh_passenger" depart="119.40" departLane="best" from="122816065" to="-35854344#0"/>
    <trip id="veh129" type="veh_passenger" depart="120.33" departLane="best" from="-35854420#1" to="600832254"/>
    <trip id="veh130" type="veh_passenger" depart="121.26" departLane="best" from="-35855116#1" to="374849533#1"/>
    <trip id="veh131" type="veh_passenger" depart="122.20" departLane="best" departSpeed="max" from="-35855153#1" to="-35851026#0"/>
    <trip id="veh132" type="veh_passenger" depart="123.13" departLane="best" from="-35854759#0" to="35854332#5"/>
    <trip id="veh133" type="veh_passenger" depart="124.06" departLane="best" from="289591535#2" to="939312915#0"/>
    <trip id="veh134" type="veh_passenger" depart="125.00" departLane="best" departSpeed="max" from="329418209" to="-106949933"/>
    <trip id="veh135" type="veh_passenger" depart="125.93" departLane="best" from="35854615#3" to="-35854790#0"/>
    <trip id="veh136" type="veh_passenger" depart="126.86" departLane="best" from="325716095#9" to="602314999"/>
    <trip id="veh137" type="veh_passenger" depart="127.79" departLane="best" departSpeed="max" from="-302154420" to="-216940546#0"/>
    <trip id="veh138" type="veh_passenger" depart="128.73" departLane="best" from="-190470150#0" to="214798254#0"/>
    <trip id="veh139" type="veh_passenger" depart="129.66" departLane="best" from="-35854433#2" to="325720698#0"/>
    <trip id="veh141" type="veh_passenger" depart="131.52" departLane="best" from="325716095#14" to="-35854606#3"/>
    <trip id="veh142" type="veh_passenger" depart="132.46" departLane="best" departSpeed="max" from="109853082#0" to="390312200"/>
    <trip id="veh143" type="veh_passenger" depart="133.39" departLane="best" from="35854785#0" to="-158740756"/>
    <trip id="veh144" type="veh_passenger" depart="134.32" departLane="best" from="-600844284" to="-35854647#1"/>
    <trip id="veh145" type="veh_passenger" depart="135.26" departLane="best" from="107039948#0" to="35854599#0"/>
    <trip id="veh146" type="veh_passenger" depart="136.19" departLane="best" from="325716095#2" to="-35854605"/>
    <trip id="veh147" type="veh_passenger" depart="137.12" departLane="best" from="35854332#0" to="212452939#0"/>
    <trip id="veh148" type="veh_passenger" depart="138.05" departLane="best" departSpeed="max" from="-602315411" to="-107039946"/>
    <trip id="veh149" type="veh_passenger" depart="138.99" departLane="best" from="-131010277#3" to="-374917504"/>
    <trip id="veh150" type="veh_passenger" depart="139.92" departLane="best" from="35855186#2" to="189218308"/>
    <trip id="veh151" type="veh_passenger" depart="140.85" departLane="best" from="-35854759#1" to="-314069086#1"/>
    <trip id="veh152" type="veh_passenger" depart="141.79" departLane="best" departSpeed="max" from="-35849232#1" to="-302155076"/>
    <trip id="veh153" type="veh_passenger" depart="142.72" departLane="best" departSpeed="max" from="-35854757" to="390310562#4"/>
    <trip id="veh154" type="veh_passenger" depart="143.65" departLane="best" departSpeed="max" from="35854435" to="35855168#1"/>
    <trip id="veh155" type="veh_passenger" depart="144.58" departLane="best" from="-35855182#5" to="-35854341#0"/>
    <trip id="veh156" type="veh_passenger" depart="145.52" departLane="best" from="35854372#1" to="-166801707#1"/>
    <trip id="veh157" type="veh_passenger" depart="146.45" departLane="best" from="-35854397#2" to="-379692540"/>
    <trip id="veh158" type="veh_passenger" depart="147.38" departLane="best" from="-390311740#3" to="133301527#1"/>
    <trip id="veh160" type="veh_passenger" depart="149.25" departLane="best" from="-35854813#2" to="874225389#0"/>
    <trip id="veh161" type="veh_passenger" depart="150.18" departLane="best" from="35854603" to="374849533#2-AddedOnRampEdge"/>
    <trip id="veh162" type="veh_passenger" depart="151.11" departLane="best" from="-111626977#9" to="35854399#3"/>
    <trip id="veh164" type="veh_passenger" depart="152.98" departLane="best" from="35854574#0" to="-35855182#1"/>
    <trip id="veh165" type="veh_passenger" depart="153.91" departLane="best" from="35854603" to="-35854615#1"/>
    <trip id="veh166" type="veh_passenger" depart="154.84" departLane="best" from="35854417#5" to="-166866851#0"/>
    <trip id="veh167" type="veh_passenger" depart="155.78" departLane="best" from="-35854834#2" to="35855168#0"/>
    <trip id="veh168" type="veh_passenger" depart="156.71" departLane="best" from="-35854332#9" to="-35854794#0"/>
    <trip id="veh169" type="veh_passenger" depart="157.64" departLane="best" from="939312923#0" to="-35854801#1"/>
    <trip id="veh170" type="veh_passenger" depart="158.58" departLane="best" departSpeed="max" from="35854435" to="-35854360#0"/>
    <trip id="veh171" type="veh_passenger" depart="159.51" departLane="best" from="111626977#5" to="35854326#0"/>
    <trip id="veh172" type="veh_passenger" depart="160.44" departLane="best" from="35854792#0" to="-35855182#1"/>
    <trip id="veh173" type="veh_passenger" depart="161.37" departLane="best" from="624075439#6" to="-35854668#1"/>
    <trip id="veh174" type="veh_passenger" depart="162.31" departLane="best" from="325716095#4" to="-712631156"/>
    <trip id="veh175" type="veh_passenger" depart="163.24" departLane="best" from="133301526#2" to="169102467#1"/>
    <trip id="veh176" type="veh_passenger" depart="164.17" departLane="best" from="390312201" to="216940546#0"/>
    <trip id="veh177" type="veh_passenger" depart="165.11" departLane="best" from="-708585506" to="-35854129#3"/>
    <trip id="veh178" type="veh_passenger" depart="166.04" departLane="best" from="614360857#7" to="-35854612#0"/>
    <trip id="veh179" type="veh_passenger" depart="166.97" departLane="best" from="191356449#2" to="111628362#0"/>
    <trip id="veh180" type="veh_passenger" depart="167.90" departLane="best" from="-216940546#2" to="158415453#9"/>
    <trip id="veh181" type="veh_passenger" depart="168.84" departLane="best" from="-35855184#6" to="302154420"/>
    <trip id="veh182" type="veh_passenger" depart="169.77" departLane="best" departSpeed="max" from="-35854399#5" to="35854335#5"/>
    <trip id="veh184" type="veh_passenger" depart="171.64" departLane="best" from="-119777501#1" to="35854351#8"/>
    <trip id="veh185" type="veh_passenger" depart="172.57" departLane="best" from="-35854332#1" to="35851174#16"/>
    <trip id="veh186" type="veh_passenger" depart="173.50" departLane="best" from="-35855120" to="-119422782#1"/>
    <trip id="veh187" type="veh_passenger" depart="174.43" departLane="best" from="325716095#9" to="-35855116#0"/>
    <trip id="veh188" type="veh_passenger" depart="175.37" departLane="best" from="-35854768#0" to="35855116#1"/>
    <trip id="veh189" type="veh_passenger" depart="176.30" departLane="best" from="35854118#0" to="-35854792#0"/>
    <trip id="veh190" type="veh_passenger" depart="177.23" departLane="best" from="-35854759#0" to="-985106345"/>
    <trip id="veh191" type="veh_passenger" depart="178.16" departLane="best" from="-301628801#1" to="-109853082#1"/>
    <trip id="veh192" type="veh_passenger" depart="179.10" departLane="best" from="409320021" to="35851193#3"/>
    <trip id="veh193" type="veh_passenger" depart="180.03" departLane="best" from="35855186#0" to="336354634"/>
    <trip id="veh194" type="veh_passenger" depart="180.96" departLane="best" departSpeed="max" from="-35854643" to="-191356449#2"/>
    <trip id="veh195" type="veh_passenger" depart="181.90" departLane="best" from="1006413043#0" to="-35854764#0"/>
    <trip id="veh196" type="veh_passenger" depart="182.83" departLane="best" from="-985106343#4" to="305010137#0"/>
    <trip id="veh197" type="veh_passenger" depart="183.76" departLane="best" departSpeed="max" from="329418209" to="1197547522#0"/>
    <trip id="veh198" type="veh_passenger" depart="184.69" departLane="best" departSpeed="max" from="106949931#0" to="390311740#3"/>
    <trip id="veh199" type="veh_passenger" depart="185.63" departLane="best" departSpeed="max" from="35854435" to="35851189#1"/>
    <trip id="veh200" type="veh_passenger" depart="186.56" departLane="best" from="325716095#12" to="-35855144#1"/>
    <trip id="veh201" type="veh_passenger" depart="187.49" departLane="best" from="35854619#1" to="35854431#1"/>
    <trip id="veh202" type="veh_passenger" depart="188.43" departLane="best" from="35843611" to="-35854353#0"/>
    <trip id="veh203" type="veh_passenger" depart="189.36" departLane="best" from="-35853323" to="109853086"/>
    <trip id="veh204" type="veh_passenger" depart="190.29" departLane="best" from="35854367#3" to="1214944255"/>
    <trip id="veh205" type="veh_passenger" depart="191.22" departLane="best" from="35854790#0" to="119777501#10"/>
    <trip id="veh206" type="veh_passenger" depart="192.16" departLane="best" from="-409320021" to="35850768#0"/>
    <trip id="veh207" type="veh_passenger" depart="193.09" departLane="best" from="-35851174#5" to="35854328#0"/>
    <trip id="veh208" type="veh_passenger" depart="194.02" departLane="best" from="111204618#0" to="-35854417#1"/>
    <trip id="veh209" type="veh_passenger" depart="194.96" departLane="best" from="329418209-AddedOffRampEdge" to="-106949931#0"/>
    <trip id="veh210" type="veh_passenger" depart="195.89" departLane="best" from="35854339#1" to="35854590"/>
    <trip id="veh211" type="veh_passenger" depart="196.82" departLane="best" departSpeed="max" from="-184024313#5" to="109853087#1"/>
    <trip id="veh212" type="veh_passenger" depart="197.75" departLane="best" departSpeed="max" from="-35850949#1" to="627711749#2"/>
    <trip id="veh213" type="veh_passenger" depart="198.69" departLane="best" from="35854372#0" to="35855118#1"/>
    <trip id="veh214" type="veh_passenger" depart="199.62" departLane="best" from="-886947182" to="35854774#0"/>
    <trip id="veh215" type="veh_passenger" depart="200.55" departLane="best" from="336354636#0" to="939312916#0"/>
    <trip id="veh216" type="veh_passenger" depart="201.48" departLane="best" from="190470150#1" to="614360857#5"/>
    <trip id="veh217" type="veh_passenger" depart="202.42" departLane="best" from="-35855168#0" to="330202543"/>
    <trip id="veh218" type="veh_passenger" depart="203.35" departLane="best" from="35853807" to="874225394"/>
    <trip id="veh219" type="veh_passenger" depart="204.28" departLane="best" departSpeed="max" from="35854668#0" to="-191356449#2"/>
    <trip id="veh220" type="veh_passenger" depart="205.22" departLane="best" from="35855182#1" to="35854417#3"/>
    <trip id="veh221" type="veh_passenger" depart="206.15" departLane="best" departSpeed="max" from="106949933" to="-35854590"/>
    <trip id="veh222" type="veh_passenger" depart="207.08" departLane="best" from="-35854367#8" to="35850802"/>
    <trip id="veh223" type="veh_passenger" depart="208.01" departLane="best" departSpeed="max" from="35854353#0" to="158904291#0"/>
    <trip id="veh224" type="veh_passenger" depart="208.95" departLane="best" from="314069086#2" to="-35854629#3"/>
    <trip id="veh225" type="veh_passenger" depart="209.88" departLane="best" from="-158415453#2" to="-35854764#0"/>
    <trip id="veh226" type="veh_passenger" depart="210.81" departLane="best" from="-35854431#8" to="-35854822#1"/>
    <trip id="veh227" type="veh_passenger" depart="211.75" departLane="best" from="-119777501#7" to="-35849666#2"/>
    <trip id="veh228" type="veh_passenger" depart="212.68" departLane="best" from="-35854344#5" to="35854325#0"/>
    <trip id="veh229" type="veh_passenger" depart="213.61" departLane="best" from="35851174#2" to="-111636976#3"/>
    <trip id="veh230" type="veh_passenger" depart="214.54" departLane="best" from="390311740#4" to="189218308"/>
    <trip id="veh231" type="veh_passenger" depart="215.48" departLane="best" from="-538724825#3" to="-35854335#3"/>
    <trip id="veh232" type="veh_passenger" depart="216.41" departLane="best" from="-589097220#1" to="-390312200"/>
    <trip id="veh233" type="veh_passenger" depart="217.34" departLane="best" from="166801717#2" to="35854326#2"/>
    <trip id="veh234" type="veh_passenger" depart="218.28" departLane="best" from="35854803#2" to="35854580#0"/>
    <trip id="veh235" type="veh_passenger" depart="219.21" departLane="best" from="35855182#2" to="-106949931#1"/>
    <trip id="veh236" type="veh_passenger" depart="220.14" departLane="best" from="35854836#7" to="35854433#3"/>
    <trip id="veh237" type="veh_passenger" depart="221.07" departLane="best" from="35854796#0" to="614360857#7"/>
    <trip id="veh238" type="veh_passenger" depart="222.01" departLane="best" from="-589096986" to="35854419#1"/>
    <trip id="veh239" type="veh_passenger" depart="222.94" departLane="best" from="122804236" to="325716096#1"/>
    <trip id="veh240" type="veh_passenger" depart="223.87" departLane="best" from="-35854332#6" to="-35854351#0"/>